/*--------------------------------*- C++ -*----------------------------------*\
| =========                 |                                                 |
| \\      /  F ield         | OpenFOAM: The Open Source CFD Toolbox           |
|  \\    /   O peration     | Version:  v1906                                 |
|   \\  /    A nd           | Web:      www.OpenFOAM.com                      |
|    \\/     M anipulation  |                                                 |
\*---------------------------------------------------------------------------*/
FoamFile
{
    version     2.0;
    format      ascii;
    class       volScalarField;
    location    "0/cs9";
    object      T;
}
// * * * * * * * * * * * * * * * * * * * * * * * * * * * * * * * * * * * * * //

dimensions      [ 0 0 0 1 0 0 0 ];

internalField   uniform 373.15;

boundaryField
{
    front
    {
        type            wedge;
    }
    back
    {
        type            wedge;
    }
    cs9_to_cs10
    {
        type            calculated;
        value           373.15;  // Assume this is a guess?
    }
    cs9_to_cs8
    {
        type            calculated;
        value           373.15;  // Assume this is a guess?
    }
    cs9_to_fbe13
    {
        type            calculated;
        value           373.15;  // Assume this is a guess?
    }
    cs9_to_cra5
    {
        type            calculated;
        value           373.15;  // Assume this is a guess?
    }
}


// ************************************************************************* //
